/*--------------------------------*- C++ -*----------------------------------*\
| =========                 |                                                 |
| \\      /  F ield         | OpenFOAM: The Open Source CFD Toolbox           |
|  \\    /   O peration     | Version:  5                                     |
|   \\  /    A nd           | Web:      www.OpenFOAM.org                      |
|    \\/     M anipulation  |                                                 |
\*---------------------------------------------------------------------------*/
FoamFile
{
    version     2.0;
    format      ascii;
    class       dictionary;
    object      dynamicMeshDict;
}
// * * * * * * * * * * * * * * * * * * * * * * * * * * * * * * * * * * * * * //


//Keep in mind that these comments may be inaccurate or misleading. If you find
//something inaccurate or have any question, please tell me at discord or email.


//___________________________________________________________________________//

//Most of the parameter definitions are mentioned here:
//
//    https://openfoamwiki.net/index.php/Parameter_Definitions_-_dynamicMotionSolverFvMesh
//
//so I'll skip what's unnecessary.. and note that the guide was made
//for OF 2.2 version from Engys (some changes appeared for OF 5.0)

//___________________________________________________________________________//


dynamicFvMesh      dynamicMotionSolverFvMesh;

motionSolverLibs ("libsixDoFRigidBodyMotion.so");

motionSolver    sixDoFRigidBodyMotion;

//"diffusivity" keyword is not specified here since there's no need for it
//default behaviour is fine but you can try yourself for other

patches         (valec);//"valec" = czech term for "cylinder".. now you know :)
innerDistance   0.25;	//distance in meters
outerDistance   1.09;	//distance in meters

mass            0.0875;
centreOfMass    (0 0 0);

momentOfInertia (1 1 1);//no need to evaluate since rotation is supressed
orientation//origin used as reference for rotation angles (see restraints)
(
    1 0 0
    0 1 0
    0 0 1
);

//velocity      (0 0 0);//initial conditions for movement
//acceleration  (0 0 0);//no need to specify if zeros
//angularMomentum (0 0 0);
//torque        (0 0 0);

g               (0 0 0);

rho             rhoInf;//the same definition as in forces function object
rhoInf          1.205;

report          on;

solver
{
    type symplectic;
}

constraints
{
    yLine//just a name (your choice)
    {
        sixDoFRigidBodyMotionConstraint line;//type of the constraint
        
        centreOfRotation    (0 0 0);//centre point of the line.. uses or derives definition 
                                    //from another lib, therefore a bit strange keywords here
        direction           (0 1 0);
    }

    zAxis//name
    {
        sixDoFRigidBodyMotionConstraint axis;
        
        axis                (0 0 1);
    }
}

restraints
{
    verticalSpring//name
    {
        sixDoFRigidBodyMotionRestraint linearSpring;

        anchor          (0 0 0);//fixed end point of the spring (doesn't move at all)
        refAttachmentPt (0 0 0);//attachment point on the body
        
        stiffness       21.6;//was evaluated from natural frequency
        damping         0.001;//roughly estimated
        
        restLength      0;//initial condition of the spring
    }

    axialSpring//name
    {
        sixDoFRigidBodyMotionRestraint linearAxialAngularSpring;

        axis            (0 0 1);
        stiffness       1e9;//we want to surpress the rotation
        damping         1;//bc why not
        referenceOrientation $orientation;//see the "orientation" parameter
    }
}

//also see paragraph "10 Physics - Boundary Condition Setup" in the guide


// ************************************************************************* //
