/*--------------------------------*- C++ -*----------------------------------*\
| =========                 |                                                 |
| \\      /  F ield         | OpenFOAM: The Open Source CFD Toolbox           |
|  \\    /   O peration     | Version:  5                                     |
|   \\  /    A nd           | Web:      www.OpenFOAM.org                      |
|    \\/     M anipulation  |                                                 |
\*---------------------------------------------------------------------------*/
FoamFile
{
    version     2.0;
    format      ascii;
    class       volScalarField;
    location    "0";
    object      nut;
}
// * * * * * * * * * * * * * * * * * * * * * * * * * * * * * * * * * * * * * //

dimensions      [0 2 -1 0 0 0 0];

internalField   uniform 0;

boundaryField
{
    valec
    {
////        type            nutkWallFunction;
//        type            fixedValue;
//        value           uniform 0;
        type            uniformFixedValue;
        uniformValue           constant 0;
    }

    "(frontAndBackPlanes|top|bottom|inlet|outlet)"
    {
        type            calculated;
        value           uniform 0;
    }
}


// ************************************************************************* //
